kpg193_v2_0_2023/network/m/KPG193_ver2_0_2023.m
function mpc = KPG193_ver2_0_2023
% Generated from KPG193_ver1_6 ACOPF hourly result.
% Bus voltage angle Va is in degrees, matching MATPOWER case format.
mpc.version = '2';

%-----  Power Flow Data  -----%%
% system MVA base
mpc.baseMVA = 100;

% bus data
%	bus_i	type	Pd	Qd	Gs	Bs	area	Vm	Va	baseKV	zone	Vmax	Vmin
mpc.bus = [
	1	1	61.1557212608	6.11557212608	0	0	1	0.993260510259	-17.5084644996	154	1	1.1	0.9	;
	2	1	73.914568584	7.39145685841	0	0	1	0.99749698844	-18.4211858385	345	1	1.05	0.95	;
	3	1	339.000939569	33.9000939569	0	0	1	0.99783057549	-18.2865981963	345	1	1.05	0.95	;
	4	1	78.6267438631	7.86267438631	0	0	1	0.997949441062	-18.6943266381	345	1	1.05	0.95	;
	5	1	75.1156885795	8.87867032602	0	0	1	0.989536418528	-16.7952918041	154	1	1.1	0.9	;
	6	1	75.5433744107	7.55433744107	0	0	1	0.997417621036	-19.8786482205	154	1	1.1	0.9	;
	7	1	509.728504911	50.9729398875	0	0	1	0.999554993068	-18.5964490575	345	1	1.05	0.95	;
	8	1	1163.54241877	116.354241877	0	0	1	0.997527775042	-19.7129059818	345	1	1.05	0.95	;
	9	1	294.573193701	29.4573193701	0	0	1	1.00113802119	-19.1930114903	154	1	1.1	0.9	;
	10	2	647.165683216	64.7165683216	0	0	1	0.998452698439	-19.6352136432	154	1	1.1	0.9	;
	11	1	536.035297569	53.6035297569	0	0	1	0.997999611451	-19.8961368365	345	1	1.05	0.95	;
	12	1	294.128997867	29.4128997867	0	0	1	1.00103441465	-19.2089253993	154	1	1.1	0.9	;
	13	1	317.01949928	31.701949928	0	0	1	1.00122141191	-19.1951186289	154	1	1.1	0.9	;
	14	1	339.979974045	33.9979974045	0	0	1	1.00109982743	-19.2235140182	345	1	1.05	0.95	;
	15	1	100.57270378	10.057270378	0	0	1	1.00177298207	-19.1255037899	154	1	1.1	0.9	;
	16	1	433.271170626	43.3271170626	0	0	1	1.00209674537	-19.0919343401	345	1	1.05	0.95	;
	17	1	467.199820029	46.7199820029	0	0	1	1.00176884773	-19.1644736316	345	1	1.05	0.95	;
	18	1	487.776000587	48.7776000587	0	0	1	1.00158191164	-19.1926706016	345	1	1.05	0.95	;
	19	2	459.195122071	45.920883703	0	0	1	1.00115270824	-19.2243663482	345	1	1.05	0.95	;
	20	2	234.724160891	23.7144162266	0	0	1	1.00144615143	-18.8253672573	154	1	1.1	0.9	;
	21	2	715.126303432	71.5806117447	0	0	1	0.999716911	-19.6145450631	345	1	1.05	0.95	;
	22	1	578.030498558	57.8030498558	0	0	1	1.00184869515	-19.0685053537	345	1	1.05	0.95	;
	23	1	338.258484796	33.8258484796	0	0	1	1.0006345014	-19.2607745243	345	1	1.05	0.95	;
	24	1	553.397706786	55.3397706786	0	0	1	1.00034043233	-19.4605430249	154	1	1.1	0.9	;
	25	1	447.5176922	44.75176922	0	0	1	0.99983529474	-19.5934889608	154	1	1.1	0.9	;
	26	1	528.199730451	52.8199730451	0	0	1	1.00101141563	-19.3861483314	345	1	1.05	0.95	;
	27	2	17.2831103546	3.00871585194	0	0	1	1.00167361979	-19.212706907	345	1	1.05	0.95	;
	28	1	119.74889071	11.974889071	0	0	1	1.00179249412	-14.8751930068	765	1	1.05	0.95	;
	29	1	582.363514121	58.2363711861	0	0	1	1.00097182728	-19.0902012867	345	1	1.05	0.95	;
	30	1	452.485602633	45.2485602633	0	0	1	1.00091851251	-19.0931860617	154	1	1.1	0.9	;
	31	1	368.000391922	36.8001042664	0	0	1	0.999882638032	-19.3134039854	154	1	1.1	0.9	;
	32	1	151.727896928	15.1727896928	0	0	1	1.00056467865	-19.2655287483	345	1	1.05	0.95	;
	33	1	437.534805535	43.7534805535	0	0	1	1.0003049519	-19.2827969969	154	1	1.1	0.9	;
	34	2	978.500433465	97.8500887507	0	0	1	1.0013922559	-19.2966639914	345	1	1.05	0.95	;
	35	1	596.111072646	59.6111072646	0	0	1	0.996766881825	-19.0377972542	154	1	1.1	0.9	;
	36	2	687.682228156	68.7682228156	0	0	1	1.00110616428	-19.0454378246	345	1	1.05	0.95	;
	37	1	843.084943791	84.3084943791	0	0	1	1.0004256075	-18.9125118474	345	1	1.05	0.95	;
	38	1	341.459025052	34.1459025052	0	0	1	0.999082341234	-18.091827474	345	1	1.05	0.95	;
	39	1	658.7705956	65.87705956	0	0	1	0.990901048895	-20.1090328084	154	1	1.1	0.9	;
	40	2	997.647000845	99.858402912	0	0	1	1.00112640225	-17.4056624037	345	1	1.05	0.95	;
	41	1	180.432045004	18.0432045004	0	0	1	0.9924126692	-15.6219090954	154	1	1.1	0.9	;
	42	2	1101.17885084	110.117885084	0	0	1	0.997601431533	-16.9398710488	154	1	1.1	0.9	;
	43	2	573.943221266	57.3945516211	0	0	1	0.995514173543	-19.2161150492	154	1	1.1	0.9	;
	44	1	177.077312555	17.7078392787	0	0	1	0.998264170674	-18.2187564064	345	1	1.05	0.95	;
	45	1	324.221817447	32.4221817447	0	0	1	0.998110219977	-17.4983186789	345	1	1.05	0.95	;
	46	1	1019.95545714	101.995545714	0	0	1	0.998284943178	-17.898048903	345	1	1.05	0.95	;
	47	1	2583.38976204	258.339024417	0	0	1	0.992327242506	-17.9936663037	345	1	1.05	0.95	;
	48	2	180.2029695	18.02029695	0	0	1	0.997978226612	-16.8649588068	154	1	1.1	0.9	;
	49	1	368.682608116	36.8682608116	0	0	1	0.99422797399	-15.7385316596	154	1	1.1	0.9	;
	50	1	438.428265828	43.8428265828	0	0	1	0.999644764992	-15.3565947565	765	1	1.05	0.95	;
	51	1	1756.45393855	175.645393855	0	0	1	0.99703592915	-15.8450899914	345	1	1.05	0.95	;
	52	1	404.211626387	40.4211626387	0	0	2	0.991380818052	-15.6370246325	154	1	1.1	0.9	;
	53	2	838.899576345	83.8899576345	0	0	2	1.01045374929	-6.93631515107	765	1	1.05	0.95	;
	54	1	360.440431977	36.0440431977	0	0	2	0.997765376092	-14.645750654	345	1	1.05	0.95	;
	55	1	1049.17908711	104.917936964	0	0	2	0.997705455054	-11.9161764659	345	1	1.05	0.95	;
	56	1	145.768313372	14.5768313372	0	0	2	0.99230207637	-15.4692829277	154	1	1.1	0.9	;
	57	1	1651.99272618	165.19929414	0	0	2	0.995512448176	-12.8926234567	345	1	1.05	0.95	;
	58	1	1236.63572839	123.663633094	0	0	2	1.01299482376	-4.89011839973	345	1	1.05	0.95	;
	59	2	112.287180698	11.2290376606	0	0	2	1.01811156213	-2.82297900463	345	1	1.05	0.95	;
	60	1	163.529234974	16.3529234974	0	0	2	1.00275255354	-9.59295469815	345	1	1.05	0.95	;
	61	1	782.887349336	78.288739007	0	0	2	0.996839134879	-14.2336430339	154	1	1.1	0.9	;
	62	1	921.460106527	92.1460297036	0	0	2	1.00029790701	-13.2508383466	765	1	1.05	0.95	;
	63	1	127.663186076	12.7663186076	0	0	2	1.00735306065	-8.10191210501	765	1	1.05	0.95	;
	64	1	465.165195098	46.5165195098	0	0	2	0.998584744444	-11.8749412857	345	1	1.05	0.95	;
	65	1	77.7152551611	11.0623852312	0	0	3	0.996094146408	0.143546327672	154	1	1.1	0.9	;
	66	1	26.9491917336	3.19562961467	0	0	3	0.984217559058	-14.3300831965	154	1	1.1	0.9	;
	67	1	22.898291125	2.53188992376	0	0	3	0.98129022223	-9.24660870383	154	1	1.1	0.9	;
	68	1	37.8939067622	3.99743995791	0	0	3	1.00531055885	2.8241940291	345	1	1.05	0.95	;
	69	1	40.0228090286	4.15953062505	0	0	3	0.983921829141	-5.65390948039	154	1	1.1	0.9	;
	70	1	229.375062337	22.9417866797	0	0	3	0.98154473739	-15.2435030895	154	1	1.1	0.9	;
	71	2	258.731500532	25.8731500532	0	0	3	1.0166426823	6.02225551892	345	1	1.05	0.95	;
	72	1	90.330988125	9.0330988125	0	0	3	0.979239628371	-11.9874017559	154	1	1.1	0.9	;
	73	2	285.79252664	29.3347244795	0	0	3	1.01627112034	5.19731161197	345	1	1.05	0.95	;
	74	1	75.200679857	8.34236375829	0	0	3	0.980732560218	-10.9970990267	154	1	1.1	0.9	;
	75	2	168.36932198	17.3130000001	0	0	3	1.02026549333	6.12271812246	345	1	1.05	0.95	;
	76	1	74.578756283	7.70714001808	0	0	3	1.00059666486	-0.481012596024	154	1	1.1	0.9	;
	77	1	317.837390987	31.7837390987	0	0	3	0.981600623018	-12.0256963749	154	1	1.1	0.9	;
	78	1	31.5226904281	7.69250025023	0	0	3	0.988904903865	-5.11411105351	154	1	1.1	0.9	;
	79	1	140.221592333	14.0221592333	0	0	3	0.996523083435	-3.31677329114	154	1	1.1	0.9	;
	80	1	-205.375886084	3.72073912973	0	0	3	1.01150402083	-0.849991786462	765	1	1.05	0.95	;
	81	1	203.088951058	20.3089652988	0	0	3	0.994380173868	-5.59286931522	345	1	1.05	0.95	;
	82	2	67.342500777	8.83046573069	0	0	3	1.01998590494	2.91728154488	765	1	1.05	0.95	;
	83	1	232.220452114	23.2220947888	0	0	3	0.989691443012	-6.38429431827	154	1	1.1	0.9	;
	84	1	328.19759521	33.8742044754	0	0	3	0.990228117055	-14.0821493203	345	1	1.05	0.95	;
	85	1	218.711878288	21.8711878288	0	0	3	1.00124640805	-4.33718339565	154	1	1.1	0.9	;
	86	1	214.177728428	21.4177894788	0	0	3	1.00239548281	-4.79258574502	345	1	1.05	0.95	;
	87	1	26.0354428813	4.89976705259	0	0	3	1.00214847743	-5.70396250754	345	1	1.05	0.95	;
	88	1	-97.1598665861	1.37773775753	0	0	3	1.00410380779	-4.94242866609	154	1	1.1	0.9	;
	89	1	74.3185134169	7.43190053364	0	0	3	0.99282972344	-8.2612643171	154	1	1.1	0.9	;
	90	1	143.874631264	14.8839307481	0	0	3	1.00155675784	-6.08916159419	154	1	1.1	0.9	;
	91	1	49.82431713	4.982431713	0	0	3	0.99693470471	-11.4971943809	154	1	1.1	0.9	;
	92	1	-0.64468511889	2.528723679	0	0	3	1.00279018204	-6.03732648652	345	1	1.05	0.95	;
	93	1	98.5888585639	9.85897524895	0	0	3	0.991928866807	-9.85639200299	154	1	1.1	0.9	;
	94	1	1.26933978321	3.6442884715	0	0	3	1.00201942708	-4.79197362252	154	1	1.1	0.9	;
	95	1	56.0007324999	5.60007324999	0	0	3	1.00056095481	-7.06258206492	345	1	1.05	0.95	;
	96	1	144.883278845	14.4883278845	0	0	4	1.00061970807	-9.78869854348	154	1	1.1	0.9	;
	97	1	45.0812693189	4.50812693189	0	0	4	1.00728583762	-7.01320665209	345	1	1.05	0.95	;
	98	1	230.006273066	23.2421191475	0	0	4	0.99699627628	-11.6975214682	154	1	1.1	0.9	;
	99	2	745.708567384	74.5708567384	0	0	4	0.989400571978	-13.2220004454	154	1	1.1	0.9	;
	100	2	174.755119555	17.4755119555	0	0	4	1.01417151297	-4.60827770004	345	1	1.05	0.95	;
	101	1	272.542910301	27.2542910301	0	0	4	0.989924681283	-13.0529768371	154	1	1.1	0.9	;
	102	1	80.2356701489	8.02356701489	0	0	4	1.00042790106	-10.3244893655	345	1	1.05	0.95	;
	103	1	84.1140237577	8.41140237577	0	0	4	1.00544594453	-7.22882488175	154	1	1.1	0.9	;
	104	1	177.693078723	17.7693078723	0	0	4	1.00232149283	-8.76490679006	345	1	1.05	0.95	;
	105	1	119.119854641	11.9119854641	0	0	4	0.998933406536	-10.599526707	154	1	1.1	0.9	;
	106	2	140.976159145	14.0976159145	0	0	4	1.00312176578	-5.32234322389	154	1	1.1	0.9	;
	107	1	3.98584595009	2.67678018019	0	0	4	1.00050204182	-9.91330900062	345	1	1.05	0.95	;
	108	1	731.70718293	73.170718293	0	0	4	1.00105770093	-6.16883159343	345	1	1.05	0.95	;
	109	1	383.171633759	38.3171633759	0	0	4	1.00156416496	-6.14885754714	345	1	1.05	0.95	;
	110	1	224.235955081	22.4235955081	0	0	4	0.994086061041	-7.53026180852	154	1	1.1	0.9	;
	111	1	142.000087153	14.2000087153	0	0	4	1.00211740095	-4.66406326796	345	1	1.05	0.95	;
	112	1	26.2521844385	2.62521844385	0	0	4	0.993273547071	-8.08916861351	154	1	1.1	0.9	;
	113	1	558.029442333	55.8029442333	0	0	4	0.993661077773	-7.27378862652	154	1	1.1	0.9	;
	114	1	61.7016092962	6.17261719274	0	0	4	1.00052239742	-4.78098158026	154	1	1.1	0.9	;
	115	1	26.9163717482	2.69163717482	0	0	4	0.992800731314	-8.29144140547	154	1	1.1	0.9	;
	116	1	37.997043524	3.7997043524	0	0	4	0.998910271987	-5.92446341101	154	1	1.1	0.9	;
	117	1	219.024670655	22.943149284	0	0	4	0.999787714173	-4.40140968982	154	1	1.1	0.9	;
	118	1	83.3255564044	8.33255564044	0	0	4	1.00886523927	-0.0615164490285	154	1	1.1	0.9	;
	119	1	83.9440602658	8.39440602658	0	0	4	1.00564246432	-4.14340333303	345	1	1.05	0.95	;
	120	1	34.4190552961	3.44190552961	0	0	4	1.00006834597	-5.24261070275	154	1	1.1	0.9	;
	121	1	80.0993438934	8.00993438933	0	0	4	1.00097151925	-2.91123078672	154	1	1.1	0.9	;
	122	1	66.3301946049	6.63301946049	0	0	4	1.00161503835	-3.89601605751	154	1	1.1	0.9	;
	123	1	53.9483344692	5.39483344692	0	0	4	1.00069750757	-5.01400707402	154	1	1.1	0.9	;
	124	2	104.841933924	10.4841933924	0	0	4	1.01786668417	2.80954106185	345	1	1.05	0.95	;
	125	1	22.3288714706	2.23288714706	0	0	4	1.0003601479	-5.17719990975	154	1	1.1	0.9	;
	126	1	371.986100696	37.1986100696	0	0	4	1.00353105003	-3.23319038961	345	1	1.05	0.95	;
	127	1	293.122908784	29.3122908784	0	0	4	1.00128527469	-4.03910708941	154	1	1.1	0.9	;
	128	1	442.879834808	44.2879834808	0	0	4	0.992915732253	-5.92192954525	154	1	1.1	0.9	;
	129	1	52.4197820888	5.24197820888	0	0	4	0.99514149828	-7.84141484661	154	1	1.1	0.9	;
	130	1	64.4317370102	6.6312553158	0	0	4	1.00219686579	-4.17043723702	345	1	1.05	0.95	;
	131	1	169.936568985	16.9936568985	0	0	4	0.997235138764	-5.69478220469	154	1	1.1	0.9	;
	132	1	91.2226711079	9.12226711079	0	0	4	0.995771634281	-7.65458296495	154	1	1.1	0.9	;
	133	1	266.939651816	27.3034303588	0	0	4	1.00008755965	-5.15661174878	345	1	1.05	0.95	;
	134	1	622.056243247	62.2056243247	0	0	4	1.00088808819	-4.59775928345	345	1	1.05	0.95	;
	135	1	131.979035184	13.2016015615	0	0	4	0.995641726123	-7.66777737663	154	1	1.1	0.9	;
	136	1	151.812088759	15.1812088759	0	0	4	1.00041740273	-5.70585926029	345	1	1.05	0.95	;
	137	2	1805.51689718	180.669368543	0	0	4	0.997819423186	-5.51867248729	345	1	1.05	0.95	;
	138	1	39.0414435097	3.90414435097	0	0	4	0.998732035905	-6.41993672455	154	1	1.1	0.9	;
	139	1	41.4206690917	4.14206690917	0	0	4	0.995570052757	-7.93929880419	154	1	1.1	0.9	;
	140	1	46.439835107	4.78987005422	0	0	4	0.99757676642	-6.89170135747	154	1	1.1	0.9	;
	141	1	49.7879151892	4.97879151892	0	0	4	0.997343673662	-6.99305976355	154	1	1.1	0.9	;
	142	1	67.6511966793	6.76511966793	0	0	4	0.998836443582	-6.23353975775	154	1	1.1	0.9	;
	143	1	97.2639816623	9.7268750415	0	0	4	0.995500740419	-7.58348992636	154	1	1.1	0.9	;
	144	1	44.7279360593	4.47445678234	0	0	4	0.995397471154	-7.95373832908	154	1	1.1	0.9	;
	145	1	134.387890822	13.8990048193	0	0	4	0.989463983878	-9.28948179059	154	1	1.1	0.9	;
	146	1	38.3221898771	4.06513571899	0	0	5	0.994448097175	-8.82955856132	154	1	1.1	0.9	;
	147	1	55.1049682868	5.51049682868	0	0	5	0.998624127557	-10.7803602984	154	1	1.1	0.9	;
	148	1	298.344645407	29.8344645407	0	0	5	0.98231639689	-12.5755604331	154	1	1.1	0.9	;
	149	1	1180.28257203	118.028257203	0	0	5	0.987377389253	-11.1643767927	345	1	1.05	0.95	;
	150	1	650.822567344	65.6353124941	0	0	5	0.995163149268	-8.69186049572	345	1	1.05	0.95	;
	151	1	548.545272194	55.4721868523	0	0	5	0.995435775067	-8.62799125115	345	1	1.05	0.95	;
	152	1	248.609852038	24.8609852038	0	0	5	0.991811665413	-9.91211998656	345	1	1.05	0.95	;
	153	1	194.812918045	19.4812918045	0	0	5	0.989719276279	-9.94016880713	154	1	1.1	0.9	;
	154	1	133.34300221	13.3343073708	0	0	5	0.987677064908	-11.0538107544	154	1	1.1	0.9	;
	155	1	373.642468996	37.3643804266	0	0	5	0.987794102567	-10.8164764557	154	1	1.1	0.9	;
	156	1	402.536149717	40.2536149717	0	0	5	0.990238842554	-9.81652259722	154	1	1.1	0.9	;
	157	1	189.500012004	18.9500012004	0	0	5	0.984962683201	-11.4910027231	154	1	1.1	0.9	;
	158	1	438.868528962	49.5757767905	0	0	5	0.992608574062	-8.88484279866	154	1	1.1	0.9	;
	159	1	344.803790719	34.4803790719	0	0	5	0.993452117101	-8.94880020983	345	1	1.05	0.95	;
	160	1	984.060247194	98.4060247194	0	0	5	0.984370419783	-11.4910508439	154	1	1.1	0.9	;
	161	1	162.265304297	16.2265304297	0	0	5	0.998018628852	-8.10172108464	345	1	1.05	0.95	;
	162	1	58.5503823579	5.85503823579	0	0	5	0.997096027884	-8.23479179469	154	1	1.1	0.9	;
	163	1	61.5834605213	6.15834605213	0	0	5	0.998039228653	-7.64076101972	345	1	1.05	0.95	;
	164	1	49.3829785157	5.17908776728	0	0	5	0.997182050765	-8.3806602987	154	1	1.1	0.9	;
	165	1	1510.12398757	151.012437518	0	0	5	0.995254214707	-7.71276273352	345	1	1.05	0.95	;
	166	2	484.547536075	48.5053754185	0	0	5	1.00325546468	-5.2618457503	345	1	1.05	0.95	;
	167	1	2015.45746557	201.545795994	0	0	5	1.00208549256	-5.56141651402	345	1	1.05	0.95	;
	168	1	128.349951805	12.8349951805	0	0	5	1.00383318226	-6.15166667585	765	1	1.05	0.95	;
	169	1	36.1712195984	3.61712195984	0	0	5	0.998261639053	-7.49036603412	154	1	1.1	0.9	;
	170	1	142.419692611	15.8943248701	0	0	5	0.998217940449	-6.73304938578	154	1	1.1	0.9	;
	171	1	25.7387988559	4.44940987736	0	0	5	1.00197140213	-5.19966245136	345	1	1.05	0.95	;
	172	1	463.949996445	46.9251954754	0	0	5	0.998780807725	-5.80003966655	154	1	1.1	0.9	;
	173	1	47.6968891231	4.86939480039	0	0	5	1.00124068173	-5.12083503068	345	1	1.05	0.95	;
	174	1	353.098232935	35.3098232935	0	0	5	0.998574731139	-5.14428503333	345	1	1.05	0.95	;
	175	2	159.964414887	16.0094484763	0	0	5	1.01094941717	-2.55720405484	765	1	1.05	0.95	;
	176	1	463.919695783	46.3919695783	0	0	5	0.997116019837	-4.8449609689	345	1	1.05	0.95	;
	177	1	593.16871212	59.3169229726	0	0	5	0.996345733649	-5.31284257975	345	1	1.05	0.95	;
	178	1	670.49303925	67.0493271225	0	0	5	0.991131312419	-6.94203330208	154	1	1.1	0.9	;
	179	1	357.87886756	35.787886756	0	0	5	1.00645273137	-3.74349758535	345	1	1.05	0.95	;
	180	1	334.72255957	33.472255957	0	0	5	0.996883592702	-4.56676553214	154	1	1.1	0.9	;
	181	1	303.44756557	30.344756557	0	0	5	1.00514390611	-4.02143247355	345	1	1.05	0.95	;
	182	1	547.822886034	54.7823865314	0	0	5	0.992281155035	-6.61124271769	345	1	1.05	0.95	;
	183	1	247.819146792	24.7819475722	0	0	5	0.995951534109	-4.94442284481	345	1	1.05	0.95	;
	184	1	489.645259674	48.9646059782	0	0	5	1.00618513073	-3.82473515104	345	1	1.05	0.95	;
	185	1	279.825207416	27.9825207416	0	0	5	1.00447766131	-4.24169261588	154	1	1.1	0.9	;
	186	2	419.024470527	41.9026623839	0	0	5	1.0057719457	-3.76990149317	345	1	1.05	0.95	;
	187	1	57.9125255659	5.79125255659	0	0	5	1.00574756794	-3.77774222619	345	1	1.05	0.95	;
	188	1	52.8884531261	5.28915591402	0	0	5	1.00182258646	-3.77622507604	154	1	1.1	0.9	;
	189	1	96.4329587344	9.654834745	0	0	5	0.993133323086	-3.09397407247	154	1	1.1	0.9	;
	190	3	173.060043735	17.3244603579	0	0	5	1	0	345	1	1.05	0.95	;
	191	1	241.11909015	24.1120070444	0	0	5	0.988500359396	-4.24347908982	154	1	1.1	0.9	;
	192	1	120.440504608	12.0440988368	0	0	5	0.99178630719	-3.1655599686	154	1	1.1	0.9	;
	193	2	34.354611354	3.4354611354	0	0	5	1.00897922039	-1.0986275891	345	1	1.05	0.95	;
];

% generator data
%	bus	Pg	Qg	Qmax	Qmin	Vg	mBase	status	Pmax	Pmin	Pc1	Pc2	Qc1min	Qc1max	Qc2min	Qc2max	ramp_agc	ramp_10	ramp_30	ramp_q	apf
mpc.gen = [
	3	0	0	362.5	-362.5	0.99783057549	100	0	725	377	0	0	0	0	0	0	0	120.8333333	362.5	362.5	0	;
	3	0	0	362.5	-362.5	0.99783057549	100	0	725	377	0	0	0	0	0	0	0	120.8333333	362.5	362.5	0	;
	3	0	0	437.1	-437.1	0.99783057549	100	0	874.2	454.584	0	0	0	0	0	0	0	145.7	437.1	437.1	0	;
	4	0	0	262.15	-262.15	0.997949441062	100	0	524.3	272.636	0	0	0	0	0	0	0	87.38333333	262.15	262.15	0	;
	4	0	0	429.2	-429.2	0.997949441062	100	0	858.4	446.368	0	0	0	0	0	0	0	143.0666667	429.2	429.2	0	;
	4	0	0	429.2	-429.2	0.997949441062	100	0	858.4	446.368	0	0	0	0	0	0	0	143.0666667	429.2	429.2	0	;
	8	0	0	423.8	-423.8	0.997527775042	100	0	847.6	440.752	0	0	0	0	0	0	0	141.2666667	423.8	423.8	0	;
	8	0	0	423.8	-423.8	0.997527775042	100	0	847.6	440.752	0	0	0	0	0	0	0	141.2666667	423.8	423.8	0	;
	8	0	0	257.75	-257.75	0.997527775042	100	0	515.5	268.06	0	0	0	0	0	0	0	85.91666667	257.75	257.75	0	;
	9	0	0	57.705	-57.705	1.00113802119	100	0	115.41	60.0132	0	0	0	0	0	0	0	19.235	57.705	57.705	0	;
	9	0	0	18.5	-18.5	1.00113802119	100	0	37	19.24	0	0	0	0	0	0	0	6.166666667	18.5	18.5	0	;
	10	0	0	300	-300	0.998452698439	100	0	600	312	0	0	0	0	0	0	0	100	300	300	0	;
	10	282.80353747	10.0106593832	150	-150	0.998452698439	100	1	300	156	0	0	0	0	0	0	0	50	150	150	0	;
	19	0	0	184.5865	-184.5865	1.00115270824	100	0	369.173	191.96996	0	0	0	0	0	0	0	61.52883333	184.5865	184.5865	0	;
	19	348.336202649	12.6591352844	184.5865	-184.5865	1.00115270824	100	1	369.173	191.96996	0	0	0	0	0	0	0	61.52883333	184.5865	184.5865	0	;
	20	341.327889953	22.5567340643	181.9055	-181.9055	1.00144615143	100	1	363.811	189.18172	0	0	0	0	0	0	0	60.63516667	181.9055	181.9055	0	;
	21	448.56555169	21.1689557337	225	-225	0.999716911	100	1	450	234	0	0	0	0	0	0	0	75	225	225	0	;
	21	0	0	225	-225	0.999716911	100	0	450	234	0	0	0	0	0	0	0	75	225	225	0	;
	21	0	0	225	-225	0.999716911	100	0	450	234	0	0	0	0	0	0	0	75	225	225	0	;
	21	0	0	225	-225	0.999716911	100	0	450	234	0	0	0	0	0	0	0	75	225	225	0	;
	24	0	0	10.5	-10.5	1.00034043233	100	0	21	10.92	0	0	0	0	0	0	0	3.5	10.5	10.5	0	;
	26	0	0	225	-225	1.00101141563	100	0	450	234	0	0	0	0	0	0	0	75	225	225	0	;
	27	0	0	63.5	-63.5	1.00167361979	100	0	127	66.04	0	0	0	0	0	0	0	21.16666667	63.5	63.5	0	;
	27	165.700327187	0.567878487577	93.65	-93.65	1.00167361979	100	1	187.3	97.396	0	0	0	0	0	0	0	31.21666667	93.65	93.65	0	;
	34	0	0	112.5	-112.5	1.0013922559	100	0	225	117	0	0	0	0	0	0	0	37.5	112.5	112.5	0	;
	34	0	0	112.5	-112.5	1.0013922559	100	0	225	117	0	0	0	0	0	0	0	37.5	112.5	112.5	0	;
	34	0	0	112.5	-112.5	1.0013922559	100	0	225	117	0	0	0	0	0	0	0	37.5	112.5	112.5	0	;
	34	203.378399529	1.50273687325	112.5	-112.5	1.0013922559	100	1	225	117	0	0	0	0	0	0	0	37.5	112.5	112.5	0	;
	34	0	0	112.5	-112.5	1.0013922559	100	0	225	117	0	0	0	0	0	0	0	37.5	112.5	112.5	0	;
	34	203.378399529	1.50273687325	112.5	-112.5	1.0013922559	100	1	225	117	0	0	0	0	0	0	0	37.5	112.5	112.5	0	;
	34	0	0	112.5	-112.5	1.0013922559	100	0	225	117	0	0	0	0	0	0	0	37.5	112.5	112.5	0	;
	34	0	0	112.5	-112.5	1.0013922559	100	0	225	117	0	0	0	0	0	0	0	37.5	112.5	112.5	0	;
	34	0	0	251.7695	-251.7695	1.0013922559	100	0	503.539	261.84028	0	0	0	0	0	0	0	83.92316667	251.7695	251.7695	0	;
	34	0	0	254.454	-254.454	1.0013922559	100	0	508.908	264.63216	0	0	0	0	0	0	0	84.818	254.454	254.454	0	;
	34	0	0	225	-225	1.0013922559	100	0	450	234	0	0	0	0	0	0	0	75	225	225	0	;
	34	438.450298084	14.3932950325	225	-225	1.0013922559	100	1	450	234	0	0	0	0	0	0	0	75	225	225	0	;
	34	0	0	225	-225	1.0013922559	100	0	450	234	0	0	0	0	0	0	0	75	225	225	0	;
	34	547.199265373	25.2177026402	287.3	-287.3	1.0013922559	100	1	574.6	298.792	0	0	0	0	0	0	0	95.76666667	287.3	287.3	0	;
	34	547.199265373	25.2177026402	287.3	-287.3	1.0013922559	100	1	574.6	298.792	0	0	0	0	0	0	0	95.76666667	287.3	287.3	0	;
	34	0	0	187.8	-187.8	1.0013922559	100	0	375.6	195.312	0	0	0	0	0	0	0	62.6	187.8	187.8	0	;
	34	0	0	187.8	-187.8	1.0013922559	100	0	375.6	195.312	0	0	0	0	0	0	0	62.6	187.8	187.8	0	;
	34	0	0	187.8	-187.8	1.0013922559	100	0	375.6	195.312	0	0	0	0	0	0	0	62.6	187.8	187.8	0	;
	36	0	0	286.895	-286.895	1.00110616428	100	0	573.79	298.3708	0	0	0	0	0	0	0	95.63166667	286.895	286.895	0	;
	36	326.359438427	21.7096667374	174.137	-174.137	1.00110616428	100	1	348.274	181.10248	0	0	0	0	0	0	0	58.04566667	174.137	174.137	0	;
	36	0	0	206.3	-206.3	1.00110616428	100	0	412.6	214.552	0	0	0	0	0	0	0	68.76666667	206.3	206.3	0	;
	36	125.875078224	3.03395604286	73.157	-73.157	1.00110616428	100	1	146.314	76.08328	0	0	0	0	0	0	0	24.38566667	73.157	73.157	0	;
	37	0	0	12	-12	1.0004256075	100	0	24	12.48	0	0	0	0	0	0	0	4	12	12	0	;
	39	0	0	240.845	-240.845	0.990901048895	100	0	481.69	250.4788	0	0	0	0	0	0	0	80.28166667	240.845	240.845	0	;
	39	0	0	240.845	-240.845	0.990901048895	100	0	481.69	250.4788	0	0	0	0	0	0	0	80.28166667	240.845	240.845	0	;
	40	0	0	30	-30	1.00112640225	100	0	60	31.2	0	0	0	0	0	0	0	10	30	30	0	;
	40	0	0	375.6	-375.6	1.00112640225	100	0	751.2	390.624	0	0	0	0	0	0	0	125.2	375.6	375.6	0	;
	40	773.654344747	72.1291613557	400	-400	1.00112640225	100	1	800	320	0	0	0	0	0	0	0	88	264	400	0	;
	40	773.654344747	72.1291613557	400	-400	1.00112640225	100	1	800	320	0	0	0	0	0	0	0	88	264	400	0	;
	40	843.488927612	82.474878366	435	-435	1.00112640225	100	1	870	348	0	0	0	0	0	0	0	95.7	287.1	435	0	;
	40	843.488927612	82.474878366	435	-435	1.00112640225	100	1	870	348	0	0	0	0	0	0	0	95.7	287.1	435	0	;
	40	843.159008833	82.474878366	435	-435	1.00112640225	100	1	870	348	0	0	0	0	0	0	0	95.7	287.1	435	0	;
	40	843.488927612	82.474878366	435	-435	1.00112640225	100	1	870	348	0	0	0	0	0	0	0	95.7	287.1	435	0	;
	43	125.27007813	2.38083852995	72.394	-72.394	0.995514173543	100	1	144.788	75.28976	0	0	0	0	0	0	0	24.13133333	72.394	72.394	0	;
	43	0	0	19.45	-19.45	0.995514173543	100	0	38.9	20.228	0	0	0	0	0	0	0	6.483333333	19.45	19.45	0	;
	45	0	0	255.9	-255.9	0.998110219977	100	0	511.8	266.136	0	0	0	0	0	0	0	85.3	255.9	255.9	0	;
	47	0	0	175	-175	0.992327242506	100	0	350	182	0	0	0	0	0	0	0	58.33333333	175	175	0	;
	47	0	0	175	-175	0.992327242506	100	0	350	182	0	0	0	0	0	0	0	58.33333333	175	175	0	;
	47	0	0	175	-175	0.992327242506	100	0	350	182	0	0	0	0	0	0	0	58.33333333	175	175	0	;
	47	0	0	175	-175	0.992327242506	100	0	350	182	0	0	0	0	0	0	0	58.33333333	175	175	0	;
	47	0	0	434.25	-434.25	0.992327242506	100	0	868.5	451.62	0	0	0	0	0	0	0	144.75	434.25	434.25	0	;
	47	0	0	431.65	-431.65	0.992327242506	100	0	863.3	448.916	0	0	0	0	0	0	0	143.8833333	431.65	431.65	0	;
	48	0	0	218.05	-218.05	0.997978226612	100	0	436.1	226.772	0	0	0	0	0	0	0	72.68333333	218.05	218.05	0	;
	48	0	0	189.19	-189.19	0.997978226612	100	0	378.38	196.7576	0	0	0	0	0	0	0	63.06333333	189.19	189.19	0	;
	48	352.500361366	26.3269869935	189.19	-189.19	0.997978226612	100	1	378.38	196.7576	0	0	0	0	0	0	0	63.06333333	189.19	189.19	0	;
	49	0	0	384.915	-384.915	0.99422797399	100	0	769.83	400.3116	0	0	0	0	0	0	0	128.305	384.915	384.915	0	;
	53	0	0	250.375	-250.375	1.01045374929	100	0	500.75	260.39	0	0	0	0	0	0	0	83.45833333	250.375	250.375	0	;
	53	0	0	266.5	-266.5	1.01045374929	100	0	533	277.16	0	0	0	0	0	0	0	88.83333333	266.5	266.5	0	;
	53	0	0	191	-191	1.01045374929	100	0	382	198.64	0	0	0	0	0	0	0	63.66666667	191	191	0	;
	53	0	0	423	-423	1.01045374929	100	0	846	439.92	0	0	0	0	0	0	0	141	423	423	0	;
	53	466.825828521	32.718494665	250	-250	1.01045374929	100	1	500	200	0	0	0	0	0	0	0	55	165	250	0	;
	53	467.105882525	32.718494665	250	-250	1.01045374929	100	1	500	200	0	0	0	0	0	0	0	55	165	250	0	;
	53	467.105882525	32.718494665	250	-250	1.01045374929	100	1	500	200	0	0	0	0	0	0	0	55	165	250	0	;
	53	467.105882525	32.718494665	250	-250	1.01045374929	100	1	500	200	0	0	0	0	0	0	0	55	165	250	0	;
	53	467.105882525	32.718494665	250	-250	1.01045374929	100	1	500	200	0	0	0	0	0	0	0	55	165	250	0	;
	53	467.105882525	32.718494665	250	-250	1.01045374929	100	1	500	200	0	0	0	0	0	0	0	55	165	250	0	;
	53	467.105882525	32.718494665	250	-250	1.01045374929	100	1	500	200	0	0	0	0	0	0	0	55	165	250	0	;
	53	467.105882525	32.718494665	250	-250	1.01045374929	100	1	500	200	0	0	0	0	0	0	0	55	165	250	0	;
	53	986.25464927	119.723839548	510	-510	1.01045374929	100	1	1020	408	0	0	0	0	0	0	0	112.2	336.6	510	0	;
	53	999.248771491	119.723839548	510	-510	1.01045374929	100	1	1020	408	0	0	0	0	0	0	0	112.2	336.6	510	0	;
	57	0	0	50.85	-50.85	0.995512448176	100	0	101.7	52.884	0	0	0	0	0	0	0	16.95	50.85	50.85	0	;
	58	0	0	232.9	-232.9	1.01299482376	100	0	465.8	242.216	0	0	0	0	0	0	0	77.63333333	232.9	232.9	0	;
	59	0	0	173.165	-173.165	1.01811156213	100	0	346.33	180.0916	0	0	0	0	0	0	0	57.72166667	173.165	173.165	0	;
	59	468.076406501	22.7900385539	250	-250	1.01811156213	100	1	500	200	0	0	0	0	0	0	0	55	165	250	0	;
	59	468.076406501	22.7900385539	250	-250	1.01811156213	100	1	500	200	0	0	0	0	0	0	0	55	165	250	0	;
	59	468.076406501	22.7900385539	250	-250	1.01811156213	100	1	500	200	0	0	0	0	0	0	0	55	165	250	0	;
	59	468.076406501	22.7900385539	250	-250	1.01811156213	100	1	500	200	0	0	0	0	0	0	0	55	165	250	0	;
	59	468.076406501	22.7900385539	250	-250	1.01811156213	100	1	500	200	0	0	0	0	0	0	0	55	165	250	0	;
	59	468.076406501	22.7900385539	250	-250	1.01811156213	100	1	500	200	0	0	0	0	0	0	0	55	165	250	0	;
	59	468.076406501	22.7900385539	250	-250	1.01811156213	100	1	500	200	0	0	0	0	0	0	0	55	165	250	0	;
	59	473.447637971	22.7900385539	250	-250	1.01811156213	100	1	500	200	0	0	0	0	0	0	0	55	165	250	0	;
	59	1016.28642346	81.9243129288	525	-525	1.01811156213	100	1	1050	420	0	0	0	0	0	0	0	115.5	346.5	525	0	;
	59	1016.28642346	81.9243129288	525	-525	1.01811156213	100	1	1050	420	0	0	0	0	0	0	0	115.5	346.5	525	0	;
	62	0	0	29.15	-29.15	1.00029790701	100	0	58.3	30.316	0	0	0	0	0	0	0	9.716666667	29.15	29.15	0	;
	64	0	0	265.2205	-265.2205	0.998584744444	100	0	530.441	275.82932	0	0	0	0	0	0	0	88.40683333	265.2205	265.2205	0	;
	70	0	0	215.6	-215.6	0.98154473739	100	0	431.2	224.224	0	0	0	0	0	0	0	71.86666667	215.6	215.6	0	;
	71	1001.67649888	70.9335407402	520	-520	1.0166426823	100	1	1040	416	0	0	0	0	0	0	0	114.4	343.2	520	0	;
	73	169.464862339	-2.0938696023	100	-100	1.01627112034	100	1	200	80	0	0	0	0	0	0	0	22	66	100	0	;
	73	169.561246184	-2.0938696023	100	-100	1.01627112034	100	1	200	80	0	0	0	0	0	0	0	22	66	100	0	;
	73	558.334033218	24.541968924	297.5	-297.5	1.01627112034	100	1	595	238	0	0	0	0	0	0	0	65.45	196.35	297.5	0	;
	73	558.530849071	24.541968924	297.5	-297.5	1.01627112034	100	1	595	238	0	0	0	0	0	0	0	65.45	196.35	297.5	0	;
	79	0	0	424	-424	0.996523083435	100	0	848	440.96	0	0	0	0	0	0	0	141.3333333	424	424	0	;
	75	987.897301713	44.3956299257	511	-511	1.02026549333	100	1	1022	408.8	0	0	0	0	0	0	0	112.42	337.26	511	0	;
	75	987.897301713	44.3956299257	511	-511	1.02026549333	100	1	1022	408.8	0	0	0	0	0	0	0	112.42	337.26	511	0	;
	82	932.189873716	99.6378729794	475	-475	1.01998590494	100	1	950	902.5	0	0	0	0	0	0	0	28.5	85.5	475	0	;
	82	932.189873716	99.6378729794	475	-475	1.01998590494	100	1	950	902.5	0	0	0	0	0	0	0	28.5	85.5	475	0	;
	82	981.558386658	109.785290862	500	-500	1.01998590494	100	1	1000	950	0	0	0	0	0	0	0	30	90	500	0	;
	82	981.558386658	109.785290862	500	-500	1.01998590494	100	1	1000	950	0	0	0	0	0	0	0	30	90	500	0	;
	82	981.558386658	109.785290862	500	-500	1.01998590494	100	1	1000	950	0	0	0	0	0	0	0	30	90	500	0	;
	82	981.558386658	109.785290862	500	-500	1.01998590494	100	1	1000	950	0	0	0	0	0	0	0	30	90	500	0	;
	82	1377.35922092	204.831774363	700	-700	1.01998590494	100	1	1400	1330	0	0	0	0	0	0	0	42	126	700	0	;
	87	0	0	180.8	-180.8	1.00214847743	100	0	361.6	188.032	0	0	0	0	0	0	0	60.26666667	180.8	180.8	0	;
	98	0	0	44	-44	0.99699627628	100	0	88	45.76	0	0	0	0	0	0	0	14.66666667	44	44	0	;
	99	38.4173062204	0.153642409104	24.15	-24.15	0.989400571978	100	1	48.3	25.116	0	0	0	0	0	0	0	8.05	24.15	24.15	0	;
	100	420.734784722	23.6952360959	225	-225	1.01417151297	100	1	450	234	0	0	0	0	0	0	0	75	225	225	0	;
	100	0	0	225	-225	1.01417151297	100	0	450	234	0	0	0	0	0	0	0	75	225	225	0	;
	100	0	0	225	-225	1.01417151297	100	0	450	234	0	0	0	0	0	0	0	75	225	225	0	;
	100	517.524008764	34.9170823147	275	-275	1.01417151297	100	1	550	220	0	0	0	0	0	0	0	60.5	181.5	275	0	;
	100	467.693843101	29.1777948872	250	-250	1.01417151297	100	1	500	200	0	0	0	0	0	0	0	55	165	250	0	;
	100	467.693843101	29.1777948872	250	-250	1.01417151297	100	1	500	200	0	0	0	0	0	0	0	55	165	250	0	;
	100	467.693843101	29.1777948872	250	-250	1.01417151297	100	1	500	200	0	0	0	0	0	0	0	55	165	250	0	;
	100	467.693843101	29.1777948872	250	-250	1.01417151297	100	1	500	200	0	0	0	0	0	0	0	55	165	250	0	;
	100	467.693843101	29.1777948872	250	-250	1.01417151297	100	1	500	200	0	0	0	0	0	0	0	55	165	250	0	;
	100	985.378212971	99.8198760457	509.515	-509.515	1.01417151297	100	1	1019.03	407.612	0	0	0	0	0	0	0	112.0933	336.2799	509.515	0	;
	100	985.378212971	99.8198760457	509.515	-509.515	1.01417151297	100	1	1019.03	407.612	0	0	0	0	0	0	0	112.0933	336.2799	509.515	0	;
	106	929.994153165	42.6447667744	509	-509	1.00312176578	100	1	1018	407.2	0	0	0	0	0	0	0	111.98	335.94	509	0	;
	108	0	0	359.2	-359.2	1.00105770093	100	0	718.4	373.568	0	0	0	0	0	0	0	119.7333333	359.2	359.2	0	;
	124	931.325879308	61.5650435658	475	-475	1.01786668417	100	1	950	902.5	0	0	0	0	0	0	0	28.5	85.5	475	0	;
	124	931.325879308	61.5650435658	475	-475	1.01786668417	100	1	950	902.5	0	0	0	0	0	0	0	28.5	85.5	475	0	;
	124	980.608887546	67.0539751564	500	-500	1.01786668417	100	1	1000	950	0	0	0	0	0	0	0	30	90	500	0	;
	124	980.608887546	67.0539751564	500	-500	1.01786668417	100	1	1000	950	0	0	0	0	0	0	0	30	90	500	0	;
	124	980.608887546	67.0539751564	500	-500	1.01786668417	100	1	1000	950	0	0	0	0	0	0	0	30	90	500	0	;
	124	980.608887546	67.0539751564	500	-500	1.01786668417	100	1	1000	950	0	0	0	0	0	0	0	30	90	500	0	;
	128	0	0	57.623	-57.623	0.992915732253	100	0	115.246	59.92792	0	0	0	0	0	0	0	19.20766667	57.623	57.623	0	;
	134	0	0	262.75	-262.75	1.00088808819	100	0	525.5	273.26	0	0	0	0	0	0	0	87.58333333	262.75	262.75	0	;
	134	0	0	432.1	-432.1	1.00088808819	100	0	864.2	449.384	0	0	0	0	0	0	0	144.0333333	432.1	432.1	0	;
	134	0	0	247.3	-247.3	1.00088808819	100	0	494.6	257.192	0	0	0	0	0	0	0	82.43333333	247.3	247.3	0	;
	134	0	0	247.3	-247.3	1.00088808819	100	0	494.6	257.192	0	0	0	0	0	0	0	82.43333333	247.3	247.3	0	;
	137	312.778354134	23.9622707362	170	-170	0.997819423186	100	1	340	136	0	0	0	0	0	0	0	37.4	112.2	170	0	;
	137	301.592966077	22.297784463	164.3	-164.3	0.997819423186	100	1	328.6	131.44	0	0	0	0	0	0	0	36.146	108.438	164.3	0	;
	156	0	0	185.35	-185.35	0.990238842554	100	0	370.7	192.764	0	0	0	0	0	0	0	61.78333333	185.35	185.35	0	;
	160	0	0	21.75	-21.75	0.984370419783	100	0	43.5	22.62	0	0	0	0	0	0	0	7.25	21.75	21.75	0	;
	166	686.400233034	61.9825736396	350	-350	1.00325546468	100	1	700	665	0	0	0	0	0	0	0	21	63	350	0	;
	166	686.400233034	61.9825736396	350	-350	1.00325546468	100	1	700	665	0	0	0	0	0	0	0	21	63	350	0	;
	166	686.400233034	61.9825736396	350	-350	1.00325546468	100	1	700	665	0	0	0	0	0	0	0	21	63	350	0	;
	166	982.877686488	94.6014214292	500	-500	1.00325546468	100	1	1000	950	0	0	0	0	0	0	0	30	90	500	0	;
	166	982.877686488	94.6014214292	500	-500	1.00325546468	100	1	1000	950	0	0	0	0	0	0	0	30	90	500	0	;
	167	0	0	150	-150	1.00208549256	100	0	300	156	0	0	0	0	0	0	0	50	150	150	0	;
	167	0	0	225	-225	1.00208549256	100	0	450	234	0	0	0	0	0	0	0	75	225	225	0	;
	167	0	0	225	-225	1.00208549256	100	0	450	234	0	0	0	0	0	0	0	75	225	225	0	;
	167	0	0	435.95	-435.95	1.00208549256	100	0	871.9	453.388	0	0	0	0	0	0	0	145.3166667	435.95	435.95	0	;
	167	0	0	221.4	-221.4	1.00208549256	100	0	442.8	230.256	0	0	0	0	0	0	0	73.8	221.4	221.4	0	;
	172	0	0	22.918	-22.918	0.998780807725	100	0	45.836	23.83472	0	0	0	0	0	0	0	7.639333333	22.918	22.918	0	;
	175	636.541238726	45.4263084762	325	-325	1.01094941717	100	1	650	617.5	0	0	0	0	0	0	0	19.5	58.5	325	0	;
	175	932.184041863	72.3746189842	475	-475	1.01094941717	100	1	950	902.5	0	0	0	0	0	0	0	28.5	85.5	475	0	;
	175	932.184041863	72.3746189842	475	-475	1.01094941717	100	1	950	902.5	0	0	0	0	0	0	0	28.5	85.5	475	0	;
	175	981.560005488	77.2913180038	500	-500	1.01094941717	100	1	1000	950	0	0	0	0	0	0	0	30	90	500	0	;
	175	981.560005488	77.2913180038	500	-500	1.01094941717	100	1	1000	950	0	0	0	0	0	0	0	30	90	500	0	;
	175	1377.49184109	123.616582663	700	-700	1.01094941717	100	1	1400	1330	0	0	0	0	0	0	0	42	126	700	0	;
	175	1377.49184109	123.616582663	700	-700	1.01094941717	100	1	1400	1330	0	0	0	0	0	0	0	42	126	700	0	;
	180	0	0	13.15	-13.15	0.996883592702	100	0	26.3	13.676	0	0	0	0	0	0	0	4.383333333	13.15	13.15	0	;
	186	0	0	225	-225	1.0057719457	100	0	450	234	0	0	0	0	0	0	0	75	225	225	0	;
	186	431.499912662	30.1064311731	225	-225	1.0057719457	100	1	450	234	0	0	0	0	0	0	0	75	225	225	0	;
	186	431.499912662	30.1064311731	225	-225	1.0057719457	100	1	450	234	0	0	0	0	0	0	0	75	225	225	0	;
	186	0	0	225	-225	1.0057719457	100	0	450	234	0	0	0	0	0	0	0	75	225	225	0	;
	190	432.019520795	-14.7842412708	280	-280	1	100	1	560	224	0	0	0	0	0	0	0	61.6	184.8	280	0	;
	190	432.019520795	-14.7842412708	280	-280	1	100	1	560	224	0	0	0	0	0	0	0	61.6	184.8	280	0	;
	190	382.728771039	-14.750060202	250	-250	1	100	1	500	200	0	0	0	0	0	0	0	55	165	250	0	;
	190	382.728771039	-14.750060202	250	-250	1	100	1	500	200	0	0	0	0	0	0	0	55	165	250	0	;
	190	851.10955846	-0.834504282707	520	-520	1	100	1	1040	416	0	0	0	0	0	0	0	114.4	343.2	520	0	;
	190	851.10955846	-0.834504282707	520	-520	1	100	1	1040	416	0	0	0	0	0	0	0	114.4	343.2	520	0	;
	193	408.649385238	19.3430676823	250	-250	1.00897922039	100	1	500	200	0	0	0	0	0	0	0	55	165	250	0	;
	193	408.915547702	19.3430676823	250	-250	1.00897922039	100	1	500	200	0	0	0	0	0	0	0	55	165	250	0	;
	193	408.915547702	19.3430676823	250	-250	1.00897922039	100	1	500	200	0	0	0	0	0	0	0	55	165	250	0	;
	193	408.915547702	19.3430676823	250	-250	1.00897922039	100	1	500	200	0	0	0	0	0	0	0	55	165	250	0	;
	193	408.915547702	19.3430676823	250	-250	1.00897922039	100	1	500	200	0	0	0	0	0	0	0	55	165	250	0	;
	193	408.880229456	19.3430676823	250	-250	1.00897922039	100	1	500	200	0	0	0	0	0	0	0	55	165	250	0	;
	193	408.915547702	19.3430676823	250	-250	1.00897922039	100	1	500	200	0	0	0	0	0	0	0	55	165	250	0	;
	193	366.591512633	19.3430676823	250	-250	1.00897922039	100	1	500	200	0	0	0	0	0	0	0	55	165	250	0	;
	71	1001.67649888	70.9335407402	520	-520	1.0166426823	100	1	1040	416	0	0	0	0	0	0	0	114.4	343.2	520	0	;
	60	0	0	247.5	-247.5	1.00275255354	100	0	495	257.4	0	0	0	0	0	0	0	82.5	247.5	247.5	0	;
	42	1023.92619118	162.219684486	512.7	-512.7	0.997601431533	100	1	1025.4	533.208	0	0	0	0	0	0	0	170.9	512.7	512.7	0	;
	11	0	0	175.23	-175.23	0.997999611451	100	0	350.46	182.2392	0	0	0	0	0	0	0	58.41	175.23	175.23	0	;
	172	0	0	59.486	-59.486	0.998780807725	100	0	118.972	61.86544	0	0	0	0	0	0	0	19.8286666667	59.486	59.486	0	;
];

% branch data
%	fbus	tbus	r	x	b	rateA	rateB	rateC	ratio	angle	status	angmin	angmax	Pf	Qf	Pt	Qt
mpc.branch = [
	1	2	0.001953667	0.017794207	0.057753945	904	904	904	0	0	1	-30	30	85.148626883	-35.1388409184	-84.9844045835	30.9124304414	;
	1	3	0.002346024	0.021367842	0.069352749	904	904	904	0	0	1	-30	30	59.9824108101	-30.8223572011	-59.8789995915	24.8905748854	;
	1	66	0.002789894	0.025410654	0.082474341	904	904	904	0	0	1	-30	30	-206.286759212	59.8456267654	207.605661557	-55.8958230666	;
	2	3	0.000230027	0.002463512	0.207508013	2172	2172	2172	0	0	1	-30	30	-95.3261776262	-14.8183333124	95.3472321043	-5.61013863091	;
	2	4	0.001097043	0.009991982	0.032430577	904	904	904	0	0	1	-30	30	46.4497245637	-11.1168630328	-46.4249403031	8.11429347615	;
	2	6	0.004587512	0.041783555	0.135615211	904	904	904	0	0	1	-30	30	59.9462886693	-12.3686906071	-59.7791482418	0.398380510912	;
	3	4	0.000157872	0.001690763	0.142417379	2172	2172	2172	0	0	1	-30	30	414.975557972	-51.3614138012	-414.69940383	40.1372425222	;
	3	7	0.001539844	0.014025061	0.04552058	904	904	904	0	0	1	-30	30	36.6802642779	-18.457972	-36.6554017351	14.1442545342	;
	3	28	0.000668777	0.007162388	0.603306441	2172	2172	2172	0	0	1	-30	30	-826.125005002	16.6388596962	830.723791653	-27.6954664796	;
	4	7	0.001330617	0.012119404	0.039335464	904	904	904	0	0	1	-30	30	-15.3257533471	-13.4846714619	15.3306665055	9.60568240704	;
	4	8	0.000413018	0.004423289	0.372585094	2172	2172	2172	0	0	1	-30	30	397.823348419	-42.6295374012	-397.164598987	12.5943410343	;
	5	16	0.00309813	0.028218105	0.091586372	904	904	904	0	0	1	-30	30	134.671843531	-60.4930395351	-133.998750004	57.541118698	;
	5	20	0.003233724	0.029453105	0.095594761	904	904	904	0	0	1	-30	30	113.655148823	-55.0601437437	-113.144730751	50.2352787793	;
	5	66	0.002753227	0.025076687	0.081390398	904	904	904	0	0	1	-30	30	-162.394704668	38.4276532151	163.186801918	-39.1400280435	;
	5	70	0.001710666	0.015580931	0.050570403	904	904	904	0	0	1	-30	30	-161.04797462	68.2468606788	161.588475109	-68.2358583394	;
	6	8	0.001796592	0.016363559	0.053110546	904	904	904	0	0	1	-30	30	-17.4493044394	-1.37201971095	17.4548321519	-3.8618765334	;
	6	11	0.001545809	0.014079394	0.045696926	904	904	904	0	0	1	-30	30	1.68507850933	-6.5806980988	-1.68474606519	2.03495089459	;
	7	9	0.000740338	0.006743076	0.021885732	904	904	904	0	0	1	-30	30	150.215257535	-40.2472925265	-150.03669453	39.6835715245	;
	7	14	0.000255269	0.002733843	0.230278712	2172	2172	2172	0	0	1	-30	30	392.094443202	-102.405563336	-391.68053605	83.7953997302	;
	7	28	0.000583767	0.00625196	0.526618746	2172	2172	2172	0	0	1	-30	30	-1030.71348432	67.9299843014	1036.97266362	-53.6290786576	;
	8	10	0.000160584	0.000184873	0.901984702	1416	1416	1416	0	0	1	-30	30	-663.204663324	32.6250386116	663.924175331	-121.632996085	;
	8	11	0.000158062	0.001692798	0.142588761	2172	2172	2172	0	0	1	-30	30	183.901127255	-51.7692022882	-183.844235645	38.1833211099	;
	8	14	0.000269282	0.002883925	0.242920462	2172	2172	2172	0	0	1	-30	30	-304.529087745	-105.942546974	304.803892641	84.6268236565	;
	9	12	0.000119405	0.000137466	0.167672111	708	708	708	0	0	1	-30	30	152.781943694	-65.6286089527	-152.750233727	48.861458697	;
	9	13	0.000176983	0.000203752	0.248523638	708	708	708	0	0	1	-30	30	-9.97343648783	-44.7651567058	9.9754556004	19.8564452919	;
	9	15	0.000297907	0.000342968	0.41832935	708	708	708	0	0	1	-30	30	-288.037869854	44.0850118654	288.297046189	-85.7414365259	;
	10	14	0.00105221	0.00958364	0.031105236	904	904	904	0	0	1	-30	30	-77.0125734895	-20.4044056136	77.0789248756	17.8996037326	;
	10	24	0.000243464	0.000280289	1.367512381	1416	1416	1416	0	0	1	-30	30	-951.273757216	87.331548227	953.54279926	-221.305672465	;
	11	21	0.00015784	0.00169041	0.142387631	2172	2172	2172	0	0	1	-30	30	-296.887341478	-80.0441006306	297.035457451	67.4240915109	;
	11	25	0.00110679	0.010080759	0.032718716	904	904	904	0	0	1	-30	30	-53.6189674344	-13.7777012859	53.6525552347	10.8188281996	;
	12	14	0.000665432	0.00606083	0.019671394	904	904	904	0	0	1	-30	30	4.04274438068	-2.50931887766	-4.04262043114	0.539107830272	;
	12	18	0.000258897	0.000298056	0.363549377	708	708	708	0	0	1	-30	30	-145.421508338	-75.7650392602	145.484702215	39.3876723958	;
	13	16	0.000661549	0.006025463	0.019556605	904	904	904	0	0	1	-30	30	-31.2052889415	-12.0721034285	31.212527118	10.1758741113	;
	13	17	0.000189196	0.000217813	0.265674267	708	708	708	0	0	1	-30	30	-264.92735492	-34.7699289119	265.060689864	8.27649996122	;
	13	22	0.000821755	0.00748463	0.024292563	904	904	904	0	0	1	-30	30	-30.1694618734	-6.26368753937	30.1771319536	3.89682708813	;
	14	18	9.94e-05	0.000114489	0.558582953	1416	1416	1416	0	0	1	-30	30	-477.440428776	-34.8850406793	477.666560007	-20.862697535	;
	14	19	2.7e-05	6.2e-05	1.344867636	1906	1906	1906	0	0	1	-30	30	-11.0422228784	-147.967931943	11.0440048747	13.1821534142	;
	14	23	0.000322118	0.000370841	0.45232683	708	708	708	0	0	1	-30	30	162.343001937	-38.0059535438	-162.257537051	-7.20682211065	;
	15	16	0.000110729	0.000127478	0.155489196	708	708	708	0	0	1	-30	30	-388.869749655	75.6841661324	389.044291982	-91.0923706248	;
	16	17	1.61e-05	3.7e-05	7.216516162	5718	5718	5718	0	0	1	-30	30	3213.85109457	-870.557631184	-3212.15369318	150.014548525	;
	16	20	0.000640865	0.005837068	0.018945138	904	904	904	0	0	1	-30	30	-77.803398748	18.9463235044	77.8445571583	-20.4726802468	;
	16	22	3.29e-05	7.57e-05	1.640782241	1906	1906	1906	0	0	1	-30	30	-336.07178754	392.150010998	336.182566057	-556.621345422	;
	16	28	0.000193401	0.002071259	0.697869898	4344	4344	4344	0	0	1	-30	30	-3519.5051744	439.509588086	3543.79516229	-249.430744169	;
	17	18	8.5e-06	1.95e-05	1.693948976	3812	3812	3812	0	0	1	-30	30	2479.89317909	-205.011026783	-2479.37106456	36.2458428419	;
	18	19	3.3e-05	3.8e-05	0.742	2832	2832	2832	0	0	1	-30	30	1392.42476255	-114.755306785	-1391.78498488	41.0889695355	;
	18	30	0.000754369	0.006870878	0.022300533	904	904	904	0	0	1	-30	30	-23.9808784304	11.2068556557	23.9863453703	-13.3926952599	;
	19	23	4.24e-05	4.88e-05	0.952412124	2832	2832	2832	0	0	1	-30	30	1269.88204761	-87.5328123118	-1269.19920846	-7.09278933518	;
	20	22	0.000644357	0.005868869	0.019048354	904	904	904	0	0	1	-30	30	70.9519525088	-15.4601181254	-70.918256266	13.8559101396	;
	21	25	0.000588113	0.0053566	0.017385701	904	904	904	0	0	1	-30	30	-7.01546465437	-2.30671757132	7.01576643526	0.571674554439	;
	21	34	9.49e-05	0.001016882	0.085654572	2172	2172	2172	0	0	1	-30	30	-556.580743604	-115.528996679	556.886645091	110.231856621	;
	22	29	0.000157753	0.000181614	0.886083495	1416	1416	1416	0	0	1	-30	30	358.669240257	127.73738947	-358.420440595	-216.309422101	;
	22	36	0.000114952	0.001231098	0.103698609	2172	2172	2172	0	0	1	-30	30	-26.9220322402	57.7423143093	26.9274002311	-68.0853513426	;
	22	38	0.000222736	0.002385427	0.200930653	2172	2172	2172	0	0	1	-30	30	-697.727858359	177.34511682	698.886150603	-185.05201529	;
	22	46	0.000425686	0.004558955	0.384012537	2172	2172	2172	0	0	1	-30	30	-436.573165949	104.38492475	437.446366902	-133.439741625	;
	23	24	5.52e-05	0.000503	0.0147	2712	2712	2712	0	0	1	-30	30	692.057208093	-16.9736557777	-691.793021276	17.909576755	;
	23	32	2.02e-05	4.64e-05	1.00675716	1906	1906	1906	0	0	1	-30	30	205.627834752	10.6622042484	-205.61855219	-111.437362553	;
	23	33	0.000169968	0.000195677	0.238673524	708	708	708	0	0	1	-30	30	195.51308273	-13.2147560882	-195.44819149	-10.6003179374	;
	24	26	0.000118	0.000136	0.664	1416	1416	1416	0	0	1	-30	30	-789.416741857	158.795139006	790.195070368	-224.387882932	;
	25	26	0.00041452	0.003775492	0.012253963	904	904	904	0	0	1	-30	30	-98.1475376287	-20.8094055507	98.1891726918	19.9621876094	;
	25	34	0.000619848	0.00564564	0.018323828	904	904	904	0	0	1	-30	30	-93.7457735849	-17.9589141341	93.8020664826	16.6370017531	;
	26	32	0.000607908	0.005536893	0.01797087	904	904	904	0	0	1	-30	30	-36.7472968309	11.250821243	36.7563849913	-12.9679658617	;
	26	34	4.5e-05	0.000103577	2.245327702	1906	1906	1906	0	0	1	-30	30	-1405.57177371	131.290616657	1406.48570229	-354.259822773	;
	27	34	9.33e-05	0.000999417	0.336734	4344	4344	4344	0	0	1	-30	30	148.417219005	-2.44083750794	-148.396541584	-31.114387009	;
	28	38	0.001685665	0.015353221	0.049831335	904	904	904	0	0	1	-30	30	364.464634152	-14.5617019195	-362.231052354	29.9179059551	;
	28	41	0.002015591	0.018358223	0.059584548	904	904	904	0	0	1	-30	30	75.3385274527	40.3833011015	-75.1867512281	-44.9250142754	;
	28	50	9.99e-05	0.00321	1.63	7290	7290	7290	0	0	1	-30	30	263.983495484	-21.8794447506	-263.910553638	-139.011323604	;
	28	80	0.000122152	0.003924627	7.991861101	14580	14580	14580	0	0	1	-30	30	-6235.02812394	314.838522247	6282.96937844	415.601492468	;
	29	30	8.04e-06	9.26e-06	0.04515506	1416	1416	1416	0	0	1	-30	30	606.680761451	47.3145516509	-606.651029509	-51.8043540222	;
	29	36	3.7e-05	8.52e-05	1.846241882	1906	1906	1906	0	0	1	-30	30	-830.623820368	110.758492629	830.893856473	-295.144715601	;
	30	31	0.00033011	0.003006676	0.009758648	904	904	904	0	0	1	-30	30	130.179069714	19.9484935875	-130.121853664	-20.404010919	;
	31	33	0.000235829	0.000271499	0.331156608	708	708	708	0	0	1	-30	30	-189.13950875	-7.74204510976	189.224076605	-25.28247057	;
	31	36	0.00107165	0.0097607	0.031679912	904	904	904	0	0	1	-30	30	-48.7390137071	-8.65405484375	48.765012492	5.71972881171	;
	32	33	6.05e-05	6.97e-05	0.1912274	1062	1062	1062	0	0	1	-30	30	431.423168285	-11.1390953786	-431.310687667	-7.87069316875	;
	32	37	0.000239942	0.002569698	0.216452349	2172	2172	2172	0	0	1	-30	30	-237.359624832	17.4826750718	237.496576514	-37.6826439646	;
	32	44	0.000338016	0.003620039	0.304925228	2172	2172	2172	0	0	1	-30	30	-493.391890033	98.9960544391	494.257891672	-120.178327012	;
	34	37	6.47e-05	0.000692975	0.058371101	2172	2172	2172	0	0	1	-30	30	-947.67277564	228.489443289	948.286773978	-227.760887829	;
	35	37	0.000950447	0.008656772	0.028096937	904	904	904	0	0	1	-30	30	-29.4555653884	-40.2619166488	29.4783158586	37.6673099482	;
	35	40	0.001104834	0.01006295	0.032660912	904	904	904	0	0	1	-30	30	-283.32774255	-9.67459758377	284.221127564	14.5524172685	;
	36	38	0.000952048	0.00867136	0.028144286	904	904	904	0	0	1	-30	30	-186.970688218	44.0801195211	187.322428427	-43.6913922806	;
	36	43	0.001604892	0.014617531	0.047443535	904	904	904	0	0	1	-30	30	24.2258941478	33.2906943879	-24.1961233573	-37.7479086132	;
	36	44	0.000327256	0.003504805	0.295218756	2172	2172	2172	0	0	1	-30	30	-400.053125128	106.706891833	400.623921084	-130.097202597	;
	36	46	0.000315296	0.00337672	0.284429868	2172	2172	2172	0	0	1	-30	30	-579.236281426	129.408215935	580.356738053	-145.83420871	;
	37	40	0.000119	0.00127	0.429	4344	4344	4344	0	0	1	-30	30	-2058.34673594	143.467797644	2063.41657377	-132.327737271	;
	38	42	0.001675214	0.015258027	0.049522368	904	904	904	0	0	1	-30	30	-128.564653865	22.6609094699	128.852657501	-24.9735721593	;
	38	45	0.001624604	0.014797065	0.048026242	904	904	904	0	0	1	-30	30	-68.2245807025	12.0188477559	68.303720748	-16.0871835783	;
	38	46	0.001525585	0.013895192	0.045099066	904	904	904	0	0	1	-30	30	-23.360217466	6.08840205496	23.3696207608	-10.5007976665	;
	38	84	0.000977268	0.010466224	0.881597169	2172	2172	2172	0	0	1	-30	30	-645.287187955	123.911493094	649.640003876	-164.515819529	;
	39	44	0.000549539	0.00500526	0.064981493	1808	1808	1808	0	0	1	-30	30	-658.770587702	-65.8770598562	661.221462618	81.7718687106	;
	40	44	0.000186834	0.002000932	0.16854368	2172	2172	2172	0	0	1	-30	30	716.366003618	72.8994989483	-715.397029538	-79.3662310234	;
	40	47	0.000177428	0.001900194	0.160058219	2172	2172	2172	0	0	1	-30	30	575.062458868	404.624505832	-574.175591374	-411.027977674	;
	41	42	0.001299581	0.011836722	0.038417974	904	904	904	0	0	1	-30	30	185.609160704	-63.5611270445	-185.104390157	64.3550756554	;
	41	52	0.003101751	0.028251087	0.091693421	904	904	904	0	0	1	-30	30	1.3010486424	-1.03337033435	-1.30061349504	-7.98400986133	;
	41	77	0.002217352	0.020195883	0.065548969	904	904	904	0	0	1	-30	30	-292.15546224	91.4763183307	294.279053294	-78.5202751312	;
	42	46	0.00172419	0.015704108	0.050970195	904	904	904	0	0	1	-30	30	104.409824744	-17.4549335028	-104.217102838	14.1341909292	;
	42	84	0.004178797	0.038060939	0.123532864	904	904	904	0	0	1	-30	30	-125.410785169	30.175670227	126.12658292	-35.8596728911	;
	43	44	0.000449352	0.004092749	0.013283673	904	904	904	0	0	1	-30	30	-424.477016658	-17.2657854245	425.295225992	23.3980108561	;
	44	48	0.001280818	0.011665829	0.037863315	904	904	904	0	0	1	-30	30	-198.835850312	24.7746756543	199.353129228	-23.835360701	;
	44	57	0.000681396	0.007297531	0.614689901	2172	2172	2172	0	0	1	-30	30	-1244.24277841	181.990141668	1255.13756802	-126.397621814	;
	45	46	0.000111099	0.001189836	0.100222927	2172	2172	2172	0	0	1	-30	30	578.016142433	-71.5824420283	-577.638605728	65.6395470074	;
	45	50	0.00040114	0.004296079	0.361869864	2172	2172	2172	0	0	1	-30	30	-862.240445095	43.0569056581	865.249082058	-46.9411947888	;
	46	48	0.001260894	0.011484355	0.037274311	904	904	904	0	0	1	-30	30	-154.103574468	19.1383418262	154.409617574	-20.0643844966	;
	46	50	0.000334595	0.003583402	0.301839233	2172	2172	2172	0	0	1	-30	30	-1225.16966866	88.8674470167	1230.24559751	-64.6274047044	;
	47	49	0.001906713	0.017366547	0.056365905	904	904	904	0	0	1	-30	30	-221.583400141	15.0920087783	222.540295699	-11.937568737	;
	47	60	0.000752607	0.008060181	0.67892992	2172	2172	2172	0	0	1	-30	30	-1787.63057542	137.598073899	1812.27797013	58.8064642897	;
	48	49	0.001480551	0.013485018	0.043767781	904	904	904	0	0	1	-30	30	-139.758508891	42.3410547388	140.078334327	-43.7707984337	;
	48	51	0.001270961	0.011576049	0.037571917	904	904	904	0	0	1	-30	30	-150.141277648	24.0986268748	150.437551226	-25.1386184833	;
	49	51	0.000899122	0.008189302	0.0598043	1356	1356	1356	0	0	1	-30	30	18.547896152	-39.0614543451	-18.5329093214	33.2696457677	;
	49	53	0.002230934	0.020319589	0.065950477	904	904	904	0	0	1	-30	30	-749.851250219	57.9057101538	762.625784491	51.81974034	;
	50	51	0.000183433	0.001964511	0.165475847	2172	2172	2172	0	0	1	-30	30	441.268518325	85.1243463799	-440.895076922	-97.6176357742	;
	50	54	0.000298513	0.003196975	0.269289514	2172	2172	2172	0	0	1	-30	30	-378.050063971	83.011626907	378.504806301	-105.000765866	;
	50	62	4.12e-05	0.001322961	2.693994224	14580	14580	14580	0	0	1	-30	30	-2774.51145362	-46.5105217879	2777.68844818	-120.857953925	;
	51	55	0.001436718	0.01308578	0.042471992	904	904	904	0	0	1	-30	30	-513.273768189	67.0066217187	517.150383875	-35.9228893314	;
	51	57	0.00189377	0.017248658	0.055983277	904	904	904	0	0	1	-30	30	-291.081693428	45.6205895183	292.740444607	-36.069199907	;
	52	54	0.001933006	0.017606027	0.057143176	904	904	904	0	0	1	-30	30	-99.849123852	-26.9555413776	100.056675352	23.1934207814	;
	52	56	0.001462649	0.013321963	0.04323856	904	904	904	0	0	1	-30	30	-22.1017295921	-6.52230451541	22.1092869953	2.33754624151	;
	52	84	0.001585688	0.014442614	0.046875812	904	904	904	0	0	1	-30	30	-181.110967696	27.9962475979	181.65498757	-27.6430265761	;
	53	55	0.000288514	0.003089893	1.041078801	4344	4344	4344	0	0	1	-30	30	2857.70545282	220.069250552	-2834.4180703	-75.6320848242	;
	53	58	0.000270064	0.002892303	0.243626177	2172	2172	2172	0	0	1	-30	30	-1258.81491963	38.893496889	1263.01327419	-18.8676756969	;
	53	63	2.79e-05	0.000896312	1.825192122	14580	14580	14580	0	0	1	-30	30	2319.48597985	207.676171055	-2317.99111963	-345.436678059	;
	54	55	0.002132132	0.019419691	0.063029714	904	904	904	0	0	1	-30	30	-240.54416013	29.3962945616	241.806044297	-24.177372324	;
	54	61	0.001817125	0.016550571	0.053717525	904	904	904	0	0	1	-30	30	-42.0865198462	7.68626182818	42.1208095765	-12.7167567719	;
	54	62	0.000345552	0.003700749	0.311723639	2172	2172	2172	0	0	1	-30	30	-656.428510003	-14.5113802904	657.924168495	-0.582677085725	;
	55	57	0.000154208	0.001651521	0.139111914	2172	2172	2172	0	0	1	-30	30	1029.08638527	38.2027531167	-1027.44261855	-34.4155301686	;
	55	64	0.003142511	0.028622331	0.092898352	904	904	904	0	0	1	-30	30	-2.80768262274	-7.37945361269	2.80817124991	-1.87150144152	;
	56	61	0.001408725	0.01283082	0.041644479	904	904	904	0	0	1	-30	30	-167.877572074	-16.9143578976	168.283936021	16.4961935373	;
	57	60	0.001430752	0.01303144	0.042295623	904	904	904	0	0	1	-30	30	-440.286672295	3.63452192833	443.085754224	17.6375286387	;
	57	97	0.000552148	0.005913329	0.498094995	2172	2172	2172	0	0	1	-30	30	-1732.14301921	28.051758611	1748.87440623	101.185356408	;
	58	59	6.17e-05	0.00066	0.501	6516	6516	6516	0	0	1	-30	30	-5651.05060643	-181.066030165	5670.26635173	334.944454453	;
	58	63	0.00017	0.00182	0.613	4344	4344	4344	0	0	1	-30	30	3151.40302309	76.2707893638	-3134.9309025	37.5236376094	;
	60	63	0.000254942	0.002730347	0.229984176	2172	2172	2172	0	0	1	-30	30	-968.826714924	-77.5322609143	971.217579775	79.9061165596	;
	60	100	0.000568608	0.006089613	0.512943851	2172	2172	2172	0	0	1	-30	30	-1450.06554325	-15.2627578888	1461.95668514	90.4453109901	;
	61	62	0.000190755	0.001737417	0.022556263	1808	1808	1808	0	0	1	-30	30	-993.292066803	-82.0681186809	995.198644213	97.1842503208	;
	62	63	6.31e-05	0.00202596	4.125535352	14580	14580	14580	0	0	1	-30	30	-4463.91201918	-215.009836722	4476.47820587	202.752905518	;
	62	64	0.00024797	0.002655684	0.223695124	2172	2172	2172	0	0	1	-30	30	-888.365990895	147.131348116	890.383909511	-147.864588875	;
	63	97	0.001705746	0.015536123	0.050424972	904	904	904	0	0	1	-30	30	-122.441498116	12.499564199	122.697313989	-15.2861489285	;
	64	96	0.001229987	0.011202852	0.036360649	904	904	904	0	0	1	-30	30	-322.151131369	21.329806303	323.437855629	-13.2433619036	;
	64	98	0.00145865	0.013285543	0.043120356	904	904	904	0	0	1	-30	30	-21.629276614	12.2001804058	21.6391321591	-16.4034196032	;
	64	99	0.00122871	0.011191219	0.036322892	904	904	904	0	0	1	-30	30	214.223904771	59.0584075821	-213.612773286	-57.081014269	;
	64	102	0.00020466	0.002191839	0.73849704	4344	4344	4344	0	0	1	-30	30	-1228.8011174	10.6314026553	1231.90477253	-51.1691805203	;
	65	68	0.001222283	0.011132689	0.036132921	904	904	904	0	0	1	-30	30	-423.554627683	-27.9101730112	425.773018459	44.4970757821	;
	65	69	0.003164497	0.028822584	0.093548306	904	904	904	0	0	1	-30	30	345.839377397	16.8477875466	-342.010016728	8.86128335476	;
	66	67	0.001903714	0.01733923	0.056277244	904	904	904	0	0	1	-30	30	-483.487224854	88.8825857346	488.246135114	-50.9732215069	;
	66	70	0.001986687	0.018094956	0.058730073	904	904	904	0	0	1	-30	30	85.7455695594	2.95763664047	-85.5940897833	-7.25160338778	;
	67	69	0.001285688	0.011710181	0.038007266	904	904	904	0	0	1	-30	30	-511.144425899	48.441331966	514.666581689	-20.0308316405	;
	68	69	0.00309092	0.02815243	0.091373212	904	904	904	0	0	1	-30	30	524.287560478	52.5931273852	-515.780743456	15.8476280879	;
	68	71	0.000542799	0.0058132	0.489660838	2172	2172	2172	0	0	1	-30	30	-987.954484724	-101.087643344	993.227973778	107.516468871	;
	69	72	0.003845431	0.035024597	0.113677932	904	904	904	0	0	1	-30	30	303.101370558	-8.83761043636	-299.451712249	31.1261495035	;
	70	72	0.001924592	0.017529395	0.056894456	904	904	904	0	0	1	-30	30	-305.369445644	52.5456756117	307.293319961	-40.4913426866	;
	71	73	0.000429713	0.004602092	0.387646086	2172	2172	2172	0	0	1	-30	30	321.409778938	-39.5088553226	-320.978705044	4.07452285905	;
	71	78	0.005029715	0.045811184	0.148687523	904	904	904	0	0	1	-30	30	429.983743737	47.9862825211	-420.835655801	20.3812718213	;
	72	74	0.001850173	0.016851572	0.054694473	904	904	904	0	0	1	-30	30	-98.172594949	0.332094765876	98.3587213892	-3.88954656432	;
	73	75	0.000154736	0.001657168	0.139587554	2172	2172	2172	0	0	1	-30	30	-1023.71076149	-148.417777743	1025.31073383	151.079442093	;
	73	76	0.003400257	0.030969904	0.100517777	904	904	904	0	0	1	-30	30	328.33246182	26.3078480803	-324.750681129	-3.90726822557	;
	73	79	0.005323371	0.048485836	0.157368535	904	904	904	0	0	1	-30	30	312.545895738	21.9693556869	-307.464260098	8.37435634559	;
	73	80	0.003287737	0.029945065	0.097191498	904	904	904	0	0	1	-30	30	361.166629908	-9.39100200697	-357.013679269	37.2254963751	;
	73	81	0.001180594	0.012643784	1.065018618	2172	2172	2172	0	0	1	-30	30	1512.74296868	121.018520373	-1486.23038724	55.2707195538	;
	74	77	0.001050785	0.009570661	0.03106311	904	904	904	0	0	1	-30	30	177.629011229	-28.2705980842	-177.276478887	28.4910914338	;
	74	78	0.003080612	0.028058549	0.091068507	904	904	904	0	0	1	-30	30	-351.188411036	23.8177815306	355.164050155	3.56017723302	;
	75	82	0.000690812	0.007398375	0.623184303	2172	2172	2172	0	0	1	-30	30	782.114542301	-79.6012459149	-778.04026308	58.3833927303	;
	76	79	0.00216439	0.019713499	0.063983315	904	904	904	0	0	1	-30	30	250.171926502	-3.79987163335	-248.818928875	9.74317833921	;
	77	81	0.002745828	0.0250093	0.081171682	904	904	904	0	0	1	-30	30	-434.839963256	18.2454502224	440.242386463	23.0367053471	;
	78	81	0.002422622	0.022065501	0.071617111	904	904	904	0	0	1	-30	30	34.1489200033	-31.6339489462	-34.1004254823	25.0330846891	;
	79	80	0.003522928	0.032087205	0.104144155	904	904	904	0	0	1	-30	30	-138.327439881	-33.59863944	139.034914706	29.5436306311	;
	79	81	0.001905365	0.017354266	0.056326045	904	904	904	0	0	1	-30	30	225.893485037	-10.7881547892	-224.913196198	14.1352401025	;
	79	83	0.001772751	0.016146406	0.052405742	904	904	904	0	0	1	-30	30	328.495563531	12.2471062474	-326.565291359	0.165378925676	;
	80	82	3.61e-05	0.00115912	2.360357594	14580	14580	14580	0	0	1	-30	30	-5859.6146379	-486.091350416	5871.7763607	633.055820907	;
	81	84	0.00122041	0.011115623	0.144310127	1808	1808	1808	0	0	1	-30	30	1306.69429209	-16.3994634518	-1285.61914256	194.144336553	;
	81	86	0.000662535	0.007095536	0.59767536	2172	2172	2172	0	0	1	-30	30	-204.781633898	-121.38523154	205.119131784	65.4237847282	;
	82	85	0.004627741	0.042149964	0.136804449	904	904	904	0	0	1	-30	30	309.335923852	23.6637427603	-305.037391202	1.51410084649	;
	82	86	0.000927929	0.009937818	0.837088105	2172	2172	2172	0	0	1	-30	30	1393.63300673	99.8747426222	-1376.12654182	2.01451848082	;
	82	94	0.005001876	0.045557628	0.147864567	904	904	904	0	0	1	-30	30	303.924487887	19.4417201421	-299.448141066	6.21451035669	;
	83	89	0.003668123	0.033409661	0.108436396	904	904	904	0	0	1	-30	30	94.3448517348	-23.3874651608	-93.9992795034	15.8800140825	;
	85	86	0.000987046	0.00899012	0.029178874	904	904	904	0	0	1	-30	30	86.3255409912	-23.3852858926	-86.247436376	21.1681463724	;
	86	87	0.000301405	0.003227955	0.271898989	2172	2172	2172	0	0	1	-30	30	491.790969969	-47.9730272846	-491.061945041	28.4670709241	;
	86	89	0.003643968	0.033189659	0.107722346	904	904	904	0	0	1	-30	30	182.990098042	8.88097003155	-181.768317997	-8.47397101119	;
	86	90	0.002477336	0.022563841	0.073234554	904	904	904	0	0	1	-30	30	100.007860569	-9.7941512285	-99.7603489476	4.69608417821	;
	86	92	0.000752885	0.008063158	0.67918067	2172	2172	2172	0	0	1	-30	30	268.288300703	-61.1379789226	-267.743502702	-1.29813498418	;
	87	90	0.002118269	0.019293421	0.062619884	904	904	904	0	0	1	-30	30	34.904608156	-3.78561134484	-34.8789024811	-2.26547119465	;
	87	95	0.000515412	0.005519901	0.464955523	2172	2172	2172	0	0	1	-30	30	430.121921977	-29.5812082117	-429.172269419	-6.86995396887	;
	88	92	0.001978682	0.018022046	0.058493431	904	904	904	0	0	1	-30	30	106.393194307	-6.29087222307	-106.170825014	2.42649495073	;
	88	94	0.002833759	0.025810183	0.083771075	904	904	904	0	0	1	-30	30	-9.23332365691	4.91313456687	9.23806586547	-13.2984321376	;
	89	93	0.001483845	0.013515018	0.043865152	904	904	904	0	0	1	-30	30	201.449106126	-14.8379269005	-200.835787921	16.1041801466	;
	90	92	0.002453205	0.022344057	0.072521209	904	904	904	0	0	1	-30	30	-4.61768641068	-8.65727109307	4.61882415892	1.3839513768	;
	91	147	0.00275034	0.025050396	0.081305066	904	904	904	0	0	1	-30	30	-49.8243170331	-4.98243171672	49.8930382589	-2.4860914305	;
	92	95	0.000460572	0.004932573	0.415483409	2172	2172	2172	0	0	1	-30	30	365.321384661	-6.42497342041	-364.709164045	-28.7060906627	;
	93	102	0.004195747	0.038215319	0.124033929	904	904	904	0	0	1	-30	30	18.5782415991	-30.1154387606	-18.5389333772	18.164466289	;
	93	149	0.002966654	0.027020609	0.087699707	904	904	904	0	0	1	-30	30	83.6687106647	4.15229983174	-83.4554765605	-10.7996117811	;
	94	150	0.00258422	0.023537359	0.076394262	904	904	904	0	0	1	-30	30	288.94079079	3.43965399673	-286.790634004	8.5262020361	;
	95	146	0.001216475	0.011079788	0.035961223	904	904	904	0	0	1	-30	30	280.060398194	26.9238345532	-279.09731441	-21.7301918251	;
	95	150	0.000858914	0.009198692	0.774829649	2172	2172	2172	0	0	1	-30	30	310.949547606	-4.73013844264	-310.11004793	-63.4316650661	;
	95	152	0.003724941	0.033927169	0.110116054	904	904	904	0	0	1	-30	30	146.870825764	7.78232112799	-146.061641952	-11.3401732896	;
...